/*--------------------------------*- C++ -*----------------------------------*\ 
  =========                 | 
  \      /  F ield         | OpenFOAM: The Open Source CFD Toolbox 
   \    /   O peration     | Version:  v2306 
    \  /    A nd           | Website:  www.openfoam.com
     \/     M anipulation  | 
\*---------------------------------------------------------------------------*/ 
FoamFile 
{ 
    version     2.0; 
    format      ascii; 
    class       dictionary; 
    location    "constant"; 
    object      thermophysicalProperties; 
} 
// * * * * * * * * * * * * * * * * * * * * * * * * * * * * * * * * * * * * * // 
// 
// Thermodynamic Coefficients Generated with mech2FoamV5 
// Sutherland Transport Coefficients Tempertaure Range: 200-3500 K
// 
// * * * * * * * * * * * * * * * * * * * * * * * * * * * * * * * * * * * * * // 

 
thermoType 
{ 
    type            heheuPsiThermo; 
    mixture         inhomogeneousMixture; 
    transport       sutherland; 
    thermo          janaf; 
    equationOfState perfectGas; 
    specie          specie; 
    energy          absoluteEnthalpy; 
} 
 
stoichiometricAirFuelMassRatio    stoichiometricAirFuelMassRatio [0 0 0 0 0 0 0] 34.07341269841282; 
 
oxidant 
{ 
    specie 
    { 
        molWeight       28.85064; 
    } 
    thermodynamics 
    { 
        Tlow            200; 
        Thigh           5000.0; 
        Tcommon         1000.0; 
        highCpCoeffs 
        ( 
            3.0013785464 0.0014869500554 -6.082690404900001e-07 1.2375541675e-10
            -9.886220964e-15 -957.5863042 5.869795690899999
        ); 
        lowCpCoeffs 
        ( 
            3.4002706656000004 0.00048319574240000016 -1.0630119579e-06 2.4237248811000003e-09
            -1.2502517023e-12 -1029.9390686000002 3.8889057833000003
        ); 
    } 
    transport 
    { 
        As              1.7098414105272213e-06; 
        Ts              245.3882037985202; 
    } 
} 
fuel 
{ 
    specie 
    { 
        molWeight       2.016; 
    } 
    thermodynamics 
    { 
        Tlow            200.0; 
        Thigh           3500.0; 
        Tcommon         1000.0; 
        highCpCoeffs 
        ( 
            3.3372792 -4.94024731e-05 4.99456778e-07 -1.79566394e-10
            2.00255376e-14 -950.158922 -3.20502331
        ); 
        lowCpCoeffs 
        ( 
            2.34433112 0.00798052075 -1.9478151e-05 2.01572094e-08
            -7.37611761e-12 -917.935173 0.683010238
        ); 
    } 
    transport 
    { 
        As              7.77310982688412e-07; 
        Ts              226.9877295535774; 
    } 
} 
burntProducts 
{ 
    specie 
    { 
        molWeight       24.279681448225006; 
    } 
    thermodynamics 
    { 
        Tlow            200; 
        Thigh           5000.0; 
        Tcommon         1000.0; 
        highCpCoeffs 
        ( 
            2.9702922351342615 0.00167778380489419 -4.1595030613945234e-07 3.1509122109388297e-11
            1.3660667726290426e-15 -10230.249336589468 5.490875828713235
        ); 
        lowCpCoeffs 
        ( 
            3.5839134572135345 0.0003235244918876534 -6.24097622452237e-07 2.0611012308687536e-09
            -1.0794415560864763e-12 -10388.594540964179 2.304133614346286
        ); 
    } 
    transport 
    { 
        As              1.8045635578105452e-06; 
        Ts              405.86590125750934; 
    } 
} 
 
// -For information about the values in this document, see file see thermo_Hydrogen-Air-inhomogeneousMixture_gri30._2025_11_29_sutherlandTrange_200-3500K.txt-
 
// ************************************************************************* // 
