/*---------------------------------------------------------------------------*\
| =========                 |                                                 |
| \\      /  F ield         | OpenFOAM: The Open Source CFD Toolbox           |
|  \\    /   O peration     | Version:  2306                                  |
|   \\  /    A nd           | Website:  www.openfoam.com                      |
|    \\/     M anipulation  |                                                 |
\*---------------------------------------------------------------------------*/
FoamFile
{
    version     2.0;
    format      ascii;
    class       volScalarField;
    object      Tu;
}
// * * * * * * * * * * * * * * * * * * * * * * * * * * * * * * * * * * * * * //

dimensions      [0 0 0 1 0 0 0];

internalField   uniform 288;

boundaryField
{
    explosionChamber
    {
        type            zeroGradient;
    }
    ground
    {
        type            zeroGradient;
    }
    outletFarfield
    {
        type            inletOutlet;
        inletValue      uniform 288;
        value           uniform 288; 
    }
}

// ************************************************************************* //
