/*--------------------------------*- C++ -*----------------------------------*\
| =========                 |                                                 |
| \\      /  F ield         | OpenFOAM: The Open Source CFD Toolbox           |
|  \\    /   O peration     | Version:  v2306                                 |
|   \\  /    A nd           | Web:      www.OpenFOAM.com                      |
|    \\/     M anipulation  |                                                 |
\*---------------------------------------------------------------------------*/
FoamFile
{
    version     2.0;
    format      ascii;
    class       dictionary;
    object      blockMeshDict;
}
// * * * * * * * * * * * * * * * * * * * * * * * * * * * * * * * * * * * * * //
scale 1.0;

// ========== PARAMETERS ========== 
// Chamber dimensions
chamberLength    4.6;
chamberWidth     4.6;  
chamberHeight    3.0;

// Vent dimensions (5.4 m² square vent)
ventArea         5.4;
ventSide         2.3238;  // sqrt(5.4)
ventYMin        -1.1619;  // -ventSide/2  
ventYMax         1.1619;  // ventSide/2
ventZMin         0.3381;  // (chamberHeight - ventSide)/2
ventZMax         2.6619;  // chamberHeight - ventZMin

// Domain extents  
farfieldLength   22.0;
farfieldWidth    60.0;    // ±30m
farfieldHeight   30.0;

// ================================
// ********** MESH RESOLUTION **********
// Mesh resolution parameters (you can change these for sensitivity studies)

// Coarse Mesh Resolution:
/*cellsChamberX         40; 
cellsChamberY         20; 
cellsChamberZ          3;

cellsVentX            50; 
cellsVentY            20; 
cellsVentZ             3;

cellsFarfieldX        40; 
cellsFarfieldY        20; 
cellsFarfieldZ        35;*/

// Medium Mesh Resolution:
/* cellsChamberX      80;
cellsChamberY         40; 
cellsChamberZ          6;

cellsVentX           100;
cellsVentY            40;
cellsVentZ             6;

cellsFarfieldX        80;
cellsFarfieldY        40; 
cellsFarfieldZ        70;*/


// ================================

// ================================
// ********** MESH RESOLUTION **********
// Mesh resolution parameters (you can change these for sensitivity studies)

// Level 1: Very Coarse Mesh (~500k cells) - for quick tests

// cellsChamberX    25; 
// cellsChamberY    12; 
// cellsChamberZ    4;

// cellsVentX       30; 
// cellsVentY       12; 
// cellsVentZ       4;

// cellsFarfieldX   25; 
// cellsFarfieldY   12; 
// cellsFarfieldZ   24;

// Level 2: Coarse Mesh (~1M cells) - for initial development

// cellsChamberX    40; 
// cellsChamberY    20; 
// cellsChamberZ    4;

// cellsVentX       50; 
// cellsVentY       20; 
// cellsVentZ       4;

// cellsFarfieldX   40; 
// cellsFarfieldY   20; 
// cellsFarfieldZ   35;


// Level 3: Medium Mesh (~2M cells) - for production runs

// cellsChamberX    60; 
// cellsChamberY    30; 
// cellsChamberZ    6;

// cellsVentX       75; 
// cellsVentY       30; 
// cellsVentZ       6;

// cellsFarfieldX   60; 
// cellsFarfieldY   30; 
// cellsFarfieldZ   52;


// Level 4: Fine Mesh (~4M cells) - for final validation

// cellsChamberX    80; 
// cellsChamberY    40; 
// cellsChamberZ    8;

// cellsVentX       100; 
// cellsVentY       40; 
// cellsVentZ       8;

// cellsFarfieldX   80; 
// cellsFarfieldY   40; 
// cellsFarfieldZ   70;


// Level 5: Very Fine Mesh (~6M cells) - for high-fidelity studies
cellsChamberX    100; 
cellsChamberY    50; 
cellsChamberZ    10;

cellsVentX       125; 
cellsVentY       50; 
cellsVentZ       10;

cellsFarfieldX   100; 
cellsFarfieldY   50; 
cellsFarfieldZ   87;

// ================================
vertices
(
//**** z=0 m ****//
// 0 1 2 3   4 5 6 7 /
   (0 -30 0)
   (4.6 -30 0)
   (4.7 -30 0)
   (22 -30 0)
   
   (22 -2.4 0)
   (4.7 -2.4 0)
   (4.6 -2.4 0)
   (0 -2.4 0)

// 8 9 10 11   12 13 14 15/
   (0 -2.3 0)
   (4.6 -2.3 0)
   (4.7 -2.3 0)
   (22 -2.3 0)
   
   (22 -1.1619 0)
   (4.7 -1.1619 0)
   (4.6 -1.1619 0)
   (0 -1.1619 0)

// 16 17 18 19   20 21 22 23/
   (0 1.1619 0)
   (4.6 1.1619 0)
   (4.7 1.1619 0)
   (22 1.1619 0)
   
   (22 2.3 0)
   (4.7 2.3 0)
   (4.6 2.3 0)
   (0 2.3 0)

// 24 25 26 27    28 29 30 31/	
   (0 2.4 0)
   (4.6 2.4 0)
   (4.7 2.4 0)
   (22 2.4 0)
   
   (22 30 0)
   (4.7 30 0)
   (4.6 30 0)
   (0 30 0)

//**** z=0.3381 m ****//
// 32 33 34 35    36 37 38 39/	
   (0 -30 0.3381)
   (4.6 -30 0.3381)
   (4.7 -30 0.3381)
   (22 -30 0.3381)
   
   (22 -2.4 0.3381)
   (4.7 -2.4 0.3381)
   (4.6 -2.4 0.3381)
   (0 -2.4 0.3381)

// 40 41 42 43   44 45 46 47/	
   (0 -2.3 0.3381)
   (4.6 -2.3 0.3381)
   (4.7 -2.3 0.3381)
   (22 -2.3 0.3381)
   
   (22 -1.1619 0.3381)
   (4.7 -1.1619 0.3381)
   (4.6 -1.1619 0.3381)
   (0 -1.1619 0.3381)

// 48 49 50 51     52 53 54 55/	
   (0 1.1619 0.3381)
   (4.6 1.1619 0.3381)
   (4.7 1.1619 0.3381)
   (22 1.1619 0.3381)
   
   (22 2.3 0.3381)
   (4.7 2.3 0.3381)
   (4.6 2.3 0.3381)
   (0 2.3 0.3381)

// 56 57 58 59    60 61 62 63/	
   (0 2.4 0.3381)
   (4.6 2.4 0.3381)
   (4.7 2.4 0.3381)
   (22 2.4 0.3381)
   
   (22 30 0.3381)
   (4.7 30 0.3381)
   (4.6 30 0.3381)
   (0 30 0.3381)

//**** z= 2.6691m ****//
// 64 65 66 67    68 69 70 71/		
   (0 -30 2.6691)
   (4.6 -30 2.6691)
   (4.7 -30 2.6691)
   (22 -30 2.6691)
   
   (22 -2.4 2.6691)
   (4.7 -2.4 2.6691)
   (4.6 -2.4 2.6691)
   (0 -2.4 2.6691)

// 72 73 74 75    76 77 78 79/	
   (0 -2.3 2.6691)
   (4.6 -2.3 2.6691)
   (4.7 -2.3 2.6691)
   (22 -2.3 2.6691)
   
   (22 -1.1619 2.6691)
   (4.7 -1.1619 2.6691)
   (4.6 -1.1619 2.6691)
   (0 -1.1619 2.6691)

// 80 81 82 83     84 85 86 87/
   (0 1.1619 2.6691)
   (4.6 1.1619 2.6691)
   (4.7 1.1619 2.6691)
   (22 1.1619 2.6691)
   
   (22 2.3 2.6691)
   (4.7 2.3 2.6691)
   (4.6 2.3 2.6691)
   (0 2.3 2.6691)
   
// 88 89 90 91     92 93 94 95/	
   (0 2.4 2.6691)
   (4.6 2.4 2.6691)
   (4.7 2.4 2.6691)
   (22 2.4 2.6691)
   
   (22 30 2.6691)
   (4.7 30 2.6691)
   (4.6 30 2.6691)
   (0 30 2.6691)

//**** z= 3m ****//
// 96 97 98 99    100 101 102 103/	
   (0 -30 3)
   (4.6 -30 3)
   (4.7 -30 3)
   (22 -30 3)
   
   (22 -2.4 3)
   (4.7 -2.4 3)
   (4.6 -2.4 3)
   (0 -2.4 3)

// 104 105 106 107    108 109 110 111/	
   (0 -2.3 3)
   (4.6 -2.3 3)
   (4.7 -2.3 3)
   (22 -2.3 3)
   
   (22 -1.1619 3)
   (4.7 -1.1619 3)
   (4.6 -1.1619 3)
   (0 -1.1619 3)

// 112 113 114 115    116 117 118 119/
   (0 1.1619 3)
   (4.6 1.1619 3)
   (4.7 1.1619 3)
   (22 1.1619 3)
   
   (22 2.3 3)
   (4.7 2.3 3)
   (4.6 2.3 3)
   (0 2.3 3)

// 120 121 122 123   124 125 126 127/		
   (0 2.4 3)
   (4.6 2.4 3)
   (4.7 2.4 3)
   (22 2.4 3)
   
   (22 30 3)
   (4.7 30 3)
   (4.6 30 3)
   (0 30 3)

//**** z= 3.1m ****//
// 128 129 130 131    132 133 134 135/		
   (0 -30 3.1)
   (4.6 -30 3.1)
   (4.7 -30 3.1)
   (22 -30 3.1)
   
   (22 -2.4 3.1)
   (4.7 -2.4 3.1)
   (4.6 -2.4 3.1)
   (0 -2.4 3.1)

// 136 137 138 139    140 141 142 143/
   (0 -2.3 3.1)
   (4.6 -2.3 3.1)
   (4.7 -2.3 3.1)
   (22 -2.3 3.1)
   
   (22 -1.1619 3.1)
   (4.7 -1.1619 3.1)
   (4.6 -1.1619 3.1)
   (0 -1.1619 3.1)

// 144 145 146 147   148 149 150 151/	
   (0 1.1619 3.1)
   (4.6 1.1619 3.1)
   (4.7 1.1619 3.1)
   (22 1.1619 3.1)
   
   (22 2.3 3.1)
   (4.7 2.3 3.1)
   (4.6 2.3 3.1)
   (0 2.3 3.1)

// 152 153 154 155   156 157 158 159/			
   (0 2.4 3.1)
   (4.6 2.4 3.1)
   (4.7 2.4 3.1)
   (22 2.4 3.1)
   
   (22 30 3.1)
   (4.7 30 3.1)
   (4.6 30 3.1)
   (0 30 3.1)

//**** z= 30m ****//
// 160 161 162 163   164 165 166 167/		
   (0 -30 30)
   (4.6 -30 30)
   (4.7 -30 30)
   (22 -30 30)
   
   (22 -2.4 30)
   (4.7 -2.4 30)
   (4.6 -2.4 30)
   (0 -2.4 30)

// 168 169 170 171   172 173 174 175/
   (0 -2.3 30)
   (4.6 -2.3 30)
   (4.7 -2.3 30)
   (22 -2.3 30)
   
   (22 -1.1619 30)
   (4.7 -1.1619 30)
   (4.6 -1.1619 30)
   (0 -1.1619 30)

// 176 177 178 179    180 181 182 183/	
   (0 1.1619 30)
   (4.6 1.1619 30)
   (4.7 1.1619 30)
   (22 1.1619 30)
   
   (22 2.3 30)
   (4.7 2.3 30)
   (4.6 2.3 30)
   (0 2.3 30)

// 184 185 186 187   188 189 190 191/		
   (0 2.4 30)
   (4.6 2.4 30)
   (4.7 2.4 30)
   (22 2.4 30)
   
   (22 30 30)
   (4.7 30 30)
   (4.6 30 30)
   (0 30 30)
);

blocks
(
//******** x0 = 0 m ******** //
    hex (0 1 6 7 32 33 38 39) ($cellsChamberX $cellsChamberY $cellsChamberZ) simpleGrading (1 0.025 1)
    hex (32 33 38 39 64 65 70 71) ($cellsChamberX $cellsChamberY 46) simpleGrading (1 0.025 1)
    hex (64 65 70 71 96 97 102 103) ($cellsChamberX $cellsChamberY $cellsChamberZ) simpleGrading (1 0.025 1)
    hex (96 97 102 103 128 129 134 135) ($cellsChamberX $cellsChamberY 2) simpleGrading (1 0.025 1)
    hex (128 129 134 135 160 161 166 167) ($cellsFarfieldX $cellsFarfieldY $cellsFarfieldZ) simpleGrading (1 0.025 24)
    
    hex (135 134 137 136 167 166 169 168) ($cellsChamberX 2 $cellsFarfieldZ) simpleGrading (1 1 24)
    
    hex (8 9 14 15 40 41 46 47) ($cellsChamberX 19 $cellsChamberZ) simpleGrading (1 1 1)
    hex (40 41 46 47 72 73 78 79) ($cellsChamberX 19 46) simpleGrading (1 1 1)
    hex (72 73 78 79 104 105 110 111) ($cellsChamberX 19 $cellsChamberZ) simpleGrading (1 1 1)
    hex (136 137 142 143 168 169 174 175) ($cellsChamberX 19 $cellsFarfieldZ) simpleGrading (1 1 24)
    
    hex (15 14 17 16 47 46 49 48) ($cellsChamberX 38 $cellsChamberZ) simpleGrading (1 1 1)
    hex (47 46 49 48 79 78 81 80) ($cellsChamberX 38 46) simpleGrading (1 1 1)
    hex (79 78 81 80 111 110 113 112) ($cellsChamberX 38 $cellsChamberZ) simpleGrading (1 1 1)
    hex (143 142 145 144 175 174 177 176) ($cellsChamberX 38 $cellsFarfieldZ) simpleGrading (1 1 24)
    
    hex (16 17 22 23 48 49 54 55) ($cellsChamberX 19 $cellsChamberZ) simpleGrading (1 1 1)
    hex (48 49 54 55 80 81 86 87) ($cellsChamberX 19 46) simpleGrading (1 1 1)
    hex (80 81 86 87 112 113 118 119) ($cellsChamberX 19 $cellsChamberZ) simpleGrading (1 1 1)
    hex (144 145 150 151 176 177 182 183) ($cellsChamberX 19 $cellsFarfieldZ) simpleGrading (1 1 24)
    
    hex (151 150 153 152 183 182 185 184) ($cellsChamberX 2 $cellsFarfieldZ) simpleGrading (1 1 24)
    
    hex (24 25 30 31 56 57 62 63) ($cellsChamberX $cellsChamberY $cellsChamberZ) simpleGrading (1 40 1)
    hex (56 57 62 63 88 89 94 95) ($cellsChamberX $cellsChamberY 46) simpleGrading (1 40 1)
    hex (88 89 94 95 120 121 126 127) ($cellsChamberX $cellsChamberY $cellsChamberZ) simpleGrading (1 40 1)
    hex (120 121 126 127 152 153 158 159) ($cellsChamberX $cellsChamberY 2) simpleGrading (1 40 1)
    hex (152 153 158 159 184 185 190 191) ($cellsFarfieldX $cellsFarfieldY $cellsFarfieldZ) simpleGrading (1 40 24)

//******** x0 = 4.6 m ******** //    
    hex (1 2 5 6 33 34 37 38) (2 $cellsChamberY $cellsChamberZ) simpleGrading (1 0.025 1)
    hex (33 34 37 38 65 66 69 70) (2 $cellsChamberY 46) simpleGrading (1 0.025 1)
    hex (65 66 69 70 97 98 101 102) (2 $cellsChamberY $cellsChamberZ) simpleGrading (1 0.025 1)
    hex (97 98 101 102 129 130 133 134) (2 $cellsChamberY 2) simpleGrading (1 0.025 1)
    hex (129 130 133 134 161 162 165 166) (2 $cellsFarfieldY $cellsFarfieldZ) simpleGrading (1 0.025 24)
    
    hex (134 133 138 137 166 165 170 169) (2 2 $cellsFarfieldZ) simpleGrading (1 1 24)
    
    hex (137 138 141 142 169 170 173 174) (2 19 $cellsFarfieldZ) simpleGrading (1 1 24)
    
    hex (46 45 50 49 78 77 82 81) (2 38 46) simpleGrading (1 1 1)
    hex (142 141 146 145 174 173 178 177) (2 38 $cellsFarfieldZ) simpleGrading (1 1 24)
        
    hex (145 146 149 150 177 178 181 182) (2 19 $cellsFarfieldZ) simpleGrading (1 1 24)
    
    hex (150 149 154 153 182 181 186 185) (2 2 $cellsFarfieldZ) simpleGrading (1 1 24)
    
    hex (25 26 29 30 57 58 61 62) (2 $cellsChamberY $cellsChamberZ) simpleGrading (1 40 1)
    hex (57 58 61 62 89 90 93 94) (2 $cellsChamberY 46) simpleGrading (1 40 1)
    hex (89 90 93 94 121 122 125 126) (2 $cellsChamberY $cellsChamberZ) simpleGrading (1 40 1)
    hex (121 122 125 126 153 154 157 158) (2 $cellsChamberY 2) simpleGrading (1 40 1)
    hex (153 154 157 158 185 186 189 190) (2 $cellsFarfieldY $cellsFarfieldZ) simpleGrading (1 40 24)
    
//******** x0 = 4.7 m ******** //
    hex (2 3 4 5 34 35 36 37) ($cellsVentX $cellsVentY $cellsVentZ)
    simpleGrading 
    (
       (
         (0.1 0.33 1)  // 10% x-dir, 33% cells, expansion = 1
        (0.9 0.67 10.3) // 90% x-dir, 67% cells, expansion = 10.3
       )
       0.025 // y-direction expansion ratio
       1 //z-direction expansion ratio
    )
    hex (34 35 36 37 66 67 68 69) ($cellsVentX $cellsVentY 46)
    simpleGrading 
    (
       (
            (0.1 0.33 1)  // 10% x-dir, 33% cells, expansion = 1
         (0.9 0.67 10.3) // 90% x-dir, 67% cells, expansion = 10.3
       )
       0.025 // y-direction expansion ratio
       1 //z-direction expansion ratio
    )
    
    hex (66 67 68 69 98 99 100 101) ($cellsVentX $cellsVentY $cellsVentZ) 
    simpleGrading 
    (
       (
           (0.1 0.33 1)  // 10% x-dir, 33% cells, expansion = 1
        (0.9 0.67 10.3) // 90% x-dir, 67% cells, expansion = 10.3
       )
       0.025 // y-direction expansion ratio
       1 //z-direction expansion ratio
    )
    hex (98 99 100 101 130 131 132 133) ($cellsVentX $cellsVentY 2) 
    simpleGrading 
    (
       (
             (0.1 0.33 1)  // 10% x-dir, 33% cells, expansion = 1
        (0.9 0.67 10.3) // 90% x-dir, 67% cells, expansion = 10.3
       )
       0.025 // y-direction expansion ratio
       1 //z-direction expansion ratio
    )
    hex (130 131 132 133 162 163 164 165) ($cellsVentX $cellsVentY $cellsFarfieldZ) 
    simpleGrading 
    (
       (
           (0.1 0.33 1)  // 10% x-dir, 33% cells, expansion = 1
        (0.9 0.67 10.3) // 90% x-dir, 67% cells, expansion = 10.3
       )
       0.025 // y-direction expansion ratio
       24 //z-direction expansion ratio
    )
    
    hex (5 4 11 10 37 36 43 42) ($cellsVentX 2 $cellsVentZ) 
    simpleGrading 
    (
       (
           (0.1 0.33 1)  // 10% x-dir, 33% cells, expansion = 1
        (0.9 0.67 10.3) // 90% x-dir, 67% cells, expansion = 10.3
       )
       1 // y-direction expansion ratio
       1 //z-direction expansion ratio
    )
    hex (37 36 43 42 69 68 75 74) ($cellsVentX 2 46) 
    simpleGrading 
    (
      (
        (0.1 0.33 1)  // 10% x-dir, 33% cells, expansion = 1
        (0.9 0.67 10.3) // 90% x-dir, 67% cells, expansion = 10.3
       )
       1 // y-direction expansion ratio
       1 //z-direction expansion ratio
    )
    hex (69 68 75 74 101 100 107 106) ($cellsVentX 2 $cellsVentZ) 
    simpleGrading 
    (
       (
          (0.1 0.33 1)  // 10% x-dir, 33% cells, expansion = 1
         (0.9 0.67 10.3) // 90% x-dir, 67% cells, expansion = 10.3
       )
       1 // y-direction expansion ratio
       1 //z-direction expansion ratio
    )
    hex (101 100 107 106 133 132 139 138) ($cellsVentX 2 2) 
    simpleGrading 
    (
           (
           (0.1 0.33 1)  // 10% x-dir, 33% cells, expansion = 1
        (0.9 0.67 10.3) // 90% x-dir, 67% cells, expansion = 10.3
       )
       1 // y-direction expansion ratio
       1 //z-direction expansion ratio
    )
    hex (133 132 139 138 165 164 171 170) ($cellsVentX 2 $cellsFarfieldZ) 
    simpleGrading 
    (
       (
          (0.1 0.33 1)  // 10% x-dir, 33% cells, expansion = 1
        (0.9 0.67 10.3) // 90% x-dir, 67% cells, expansion = 10.3
       )
       1 // y-direction expansion ratio
       24 //z-direction expansion ratio
    )
    
    hex (10 11 12 13 42 43 44 45) ($cellsVentX 19 $cellsVentZ) 
    simpleGrading 
    (
       (
             (0.1 0.33 1)  // 10% x-dir, 33% cells, expansion = 1
         (0.9 0.67 10.3) // 90% x-dir, 67% cells, expansion = 10.3
       )
       1 // y-direction expansion ratio
       1 //z-direction expansion ratio
    )
    hex (42 43 44 45 74 75 76 77) ($cellsVentX 19 46) 
    simpleGrading 
    (
       (
             (0.1 0.33 1)  // 10% x-dir, 33% cells, expansion = 1
         (0.9 0.67 10.3) // 90% x-dir, 67% cells, expansion = 10.3
       )
       1 // y-direction expansion ratio
       1 //z-direction expansion ratio
    )
    hex (74 75 76 77 106 107 108 109) ($cellsVentX 19 $cellsVentZ) 
    simpleGrading 
    (
       (
             (0.1 0.33 1)  // 10% x-dir, 33% cells, expansion = 1
         (0.9 0.67 10.3) // 90% x-dir, 67% cells, expansion = 10.3
       )
       1 // y-direction expansion ratio
       1 //z-direction expansion ratio
    )
    hex (106 107 108 109 138 139 140 141) ($cellsVentX 19 2) 
    simpleGrading 
    (
       (
            (0.1 0.33 1)  // 10% x-dir, 33% cells, expansion = 1
        (0.9 0.67 10.3) // 90% x-dir, 67% cells, expansion = 10.3
       )
       1 // y-direction expansion ratio
       1 //z-direction expansion ratio
    )
    hex (138 139 140 141 170 171 172 173) ($cellsVentX 19 $cellsFarfieldZ) 
    simpleGrading 
    (
       (
            (0.1 0.33 1)  // 10% x-dir, 33% cells, expansion = 1
         (0.9 0.67 10.3) // 90% x-dir, 67% cells, expansion = 10.3
       )
       1 // y-direction expansion ratio
       24 //z-direction expansion ratio
    )
    
    hex (13 12 19 18 45 44 51 50) ($cellsVentX 38 $cellsVentZ)
    simpleGrading 
    (
       (
             (0.1 0.33 1)  // 10% x-dir, 33% cells, expansion = 1
        (0.9 0.67 10.3) // 90% x-dir, 67% cells, expansion = 10.3
       )
       1 // y-direction expansion ratio
       1 //z-direction expansion ratio
    )
    hex (45 44 51 50 77 76 83 82) ($cellsVentX 38 46) 
    simpleGrading 
    (
       (
           (0.1 0.33 1)  // 10% x-dir, 33% cells, expansion = 1
         (0.9 0.67 10.3) // 90% x-dir, 67% cells, expansion = 10.3
       )
       1 // y-direction expansion ratio
       1 //z-direction expansion ratio
    )
    hex (77 76 83 82 109 108 115 114) ($cellsVentX 38 $cellsVentZ) 
    simpleGrading 
    (
       (
           (0.1 0.33 1)  // 10% x-dir, 33% cells, expansion = 1
         (0.9 0.67 10.3) // 90% x-dir, 67% cells, expansion = 10.3
       )
       1 // y-direction expansion ratio
       1 //z-direction expansion ratio
    )
    hex (109 108 115 114 141 140 147 146) ($cellsVentX 38 2)
    simpleGrading 
    (
       (
         (0.1 0.33 1)  // 10% x-dir, 33% cells, expansion = 1
        (0.9 0.67 10.3) // 90% x-dir, 67% cells, expansion = 10.3
       )
       1 // y-direction expansion ratio
       1 //z-direction expansion ratio
    )
    hex (141 140 147 146 173 172 179 178) ($cellsVentX 38 $cellsFarfieldZ) 
    simpleGrading 
    (
       (
            (0.1 0.33 1)  // 10% x-dir, 33% cells, expansion = 1
        (0.9 0.67 10.3) // 90% x-dir, 67% cells, expansion = 10.3
       )
       1 // y-direction expansion ratio
       24 //z-direction expansion ratio
    )
    
    hex (18 19 20 21 50 51 52 53) ($cellsVentX 19 $cellsVentZ) 
    simpleGrading 
    (
       (
           (0.1 0.33 1)  // 10% x-dir, 33% cells, expansion = 1
        (0.9 0.67 10.3) // 90% x-dir, 67% cells, expansion = 10.3
       )
       1 // y-direction expansion ratio
       1 //z-direction expansion ratio
    )
    hex (50 51 52 53 82 83 84 85) ($cellsVentX 19 46) 
    simpleGrading 
    (
       (
            (0.1 0.33 1)  // 10% x-dir, 33% cells, expansion = 1
         (0.9 0.67 10.3) // 90% x-dir, 67% cells, expansion = 10.3
       )
       1 // y-direction expansion ratio
       1 //z-direction expansion ratio
    )
    hex (82 83 84 85 114 115 116 117) ($cellsVentX 19 $cellsVentZ) 
    simpleGrading 
    (
       (
             (0.1 0.33 1)  // 10% x-dir, 33% cells, expansion = 1
         (0.9 0.67 10.3) // 90% x-dir, 67% cells, expansion = 10.3
       )
       1 // y-direction expansion ratio
       1 //z-direction expansion ratio
    )
    hex (114 115 116 117 146 147 148 149) ($cellsVentX 19 2) 
    simpleGrading 
    (
       (
             (0.1 0.33 1)  // 10% x-dir, 33% cells, expansion = 1
        (0.9 0.67 10.3) // 90% x-dir, 67% cells, expansion = 10.3
       )
       1 // y-direction expansion ratio
       1 //z-direction expansion ratio
    )
    hex (146 147 148 149 178 179 180 181) ($cellsVentX 19 $cellsFarfieldZ) 
    simpleGrading 
    (
       (
           (0.1 0.33 1)  // 10% x-dir, 33% cells, expansion = 1
         (0.9 0.67 10.3) // 90% x-dir, 67% cells, expansion = 10.3
       )
       1 // y-direction expansion ratio
       24 //z-direction expansion ratio
    )
    
    hex (21 20 27 26 53 52 59 58) ($cellsVentX 2 $cellsVentZ) 
    simpleGrading 
    (
       (
            (0.1 0.33 1)  // 10% x-dir, 33% cells, expansion = 1
         (0.9 0.67 10.3) // 90% x-dir, 67% cells, expansion = 10.3
       )
       1 // y-direction expansion ratio
       1 //z-direction expansion ratio
    )
    hex (53 52 59 58 85 84 91 90) ($cellsVentX 2 46) 
    simpleGrading 
    (
       (
            (0.1 0.33 1)  // 10% x-dir, 33% cells, expansion = 1
        (0.9 0.67 10.3) // 90% x-dir, 67% cells, expansion = 10.3
       )
       1 // y-direction expansion ratio
       1 //z-direction expansion ratio
    )
    hex (85 84 91 90 117 116 123 122) ($cellsVentX 2 $cellsVentZ) 
    simpleGrading 
    (
       (
             (0.1 0.33 1)  // 10% x-dir, 33% cells, expansion = 1
         (0.9 0.67 10.3) // 90% x-dir, 67% cells, expansion = 10.3
       )
       1 // y-direction expansion ratio
       1 //z-direction expansion ratio
    )
    hex (117 116 123 122 149 148 155 154) ($cellsVentX 2 2) 
    simpleGrading 
    (
       (
            (0.1 0.33 1)  // 10% x-dir, 33% cells, expansion = 1
         (0.9 0.67 10.3) // 90% x-dir, 67% cells, expansion = 10.3
       )
       1 // y-direction expansion ratio
       1 //z-direction expansion ratio
    )
    hex (149 148 155 154 181 180 187 186) ($cellsVentX 2 $cellsFarfieldZ) 
    simpleGrading 
    (
       (
           (0.1 0.33 1)  // 10% x-dir, 33% cells, expansion = 1
         (0.9 0.67 10.3) // 90% x-dir, 67% cells, expansion = 10.3
       )
       1 // y-direction expansion ratio
       24 //z-direction expansion ratio
    )
    
    hex (26 27 28 29 58 59 60 61) ($cellsVentX $cellsVentY $cellsVentZ) 
    simpleGrading 
    (
       (
            (0.1 0.33 1)  // 10% x-dir, 33% cells, expansion = 1
         (0.9 0.67 10.3) // 90% x-dir, 67% cells, expansion = 10.3
       )
       40 // y-direction expansion ratio
       1 //z-direction expansion ratio
    )
    hex (58 59 60 61 90 91 92 93) ($cellsVentX $cellsVentY 46) 
    simpleGrading 
    (
       (
                  (0.1 0.33 1)  // 10% x-dir, 33% cells, expansion = 1
         (0.9 0.67 10.3) // 90% x-dir, 67% cells, expansion = 10.3
       )
       40 // y-direction expansion ratio
       1 //z-direction expansion ratio
    )
    hex (90 91 92 93 122 123 124 125) ($cellsVentX $cellsVentY $cellsVentZ) 
    simpleGrading 
    (
       (
                (0.1 0.33 1)  // 10% x-dir, 33% cells, expansion = 1
        (0.9 0.67 10.3) // 90% x-dir, 67% cells, expansion = 10.3
       )
       40 // y-direction expansion ratio
       1 //z-direction expansion ratio
    )
    hex (122 123 124 125 154 155 156 157) ($cellsVentX $cellsVentY 2) 
    simpleGrading 
    (
       (
          (0.1 0.33 1)  // 10% x-dir, 33% cells, expansion = 1
         (0.9 0.67 10.3) // 90% x-dir, 67% cells, expansion = 10.3
       )
       40 // y-direction expansion ratio
       1 //z-direction expansion ratio
    )
    hex (154 155 156 157 186 187 188 189) ($cellsVentX $cellsVentY $cellsFarfieldZ) 
    simpleGrading 
    (
       (
            (0.1 0.33 1)  // 10% x-dir, 33% cells, expansion = 1
         (0.9 0.67 10.3) // 90% x-dir, 67% cells, expansion = 10.3
       )
       40 // y-direction expansion ratio
       24 //z-direction expansion ratio
    )
);

edges
(
);

boundary
(
    facilityWall
    {
        type wall;
        faces
        (
           (15 8 40 47) // sides
           (16 15 47 48)
           (23 16 48 55)
           (22 23 55 54)
           (17 22 54 49)
           (9 14 46 41)
           (8 9 41 40)
           
           (14 17 49 46)
           (78 81 113 110)
           
           (47 40 72 79)
           (79 72 104 111)
           
           (48 47 79 80)
           (80 79 111 112)
           
           (55 48 80 87)
           (87 80 112 119)
           
           (54 55 87 86)
           (86 87 119 118)
           
           (49 54 86 81)
           (81 86 118 113)
           
           (41 46 78 73)
           (73 78 110 105) 		   
               
           (40 41 73 72)
           (72 73 105 104) //
           
           (24 25 57 56) //
           (56 57 89 88)
           (88 89 121 120)
           (120 121 153 152)
           
           (25 26 58 57)
           (57 58 90 89)
           (89 90 122 121)
           (121 122 154 153)
           
           (21 26 58 53)
           (53 58 90 85)
           (85 90 122 117)
           (117 122 154 149)
           
           (18 21 53 50)
           (50 53 85 82)
           (82 85 117 114)
           (114 117 149 146)
           
           (10 13 45 42)
           (42 45 77 74)
           (74 77 109 106)
           (106 109 141 138)
           
           (5 10 42 37)
           (37 42 74 69)
           (69 74 106 101)
           (101 106 138 133)
           
           (6 5 37 38)
           (38 37 69 70)
           (70 69 101 102)
           (102 101 133 134)
           
           (7 6 38 39)
           (39 38 70 71)
           (71 70 102 103)
           (103 102 134 135) //
           
           (18 13 45 50)
           (82 77 109 114)
           (114 109 141 146)	
           
           (152 153 150 151)
           (136 137 134 135)
           (137 138 133 134)
           (153 154 149 150)
           (142 141 138 137)
           (150 149 146 145)
           (145 146 141 142)
           
           
           (45 46 49 50) // vent walls
           (77 78 81 82) 
           (50 49 81 82)
           (46 45 77 78)
           
           (104 105 110 111) // top
           (111 110 113 112)
           (112 113 118 119)
           
           (136 137 142 143)
           (143 142 145 144)
           (144 145 150 151)
           
        );
    }

    bottom
    {
        type wall;
        faces
        (	
          (1 0 7 6)
          (9 8 15 14)
          (14 15 16 17)
          (17 16 23 22)
          (25 24 31 30)
          
          (2 1 6 5)
          (26 25 30 29)
          
          (3 2 5 4)
          (4 5 10 11)
          (11 10 13 12)
          (12 13 18 19)
          (19 18 21 20)
          (20 21 26 27)
          (27 26 29 28)
        );
    }

    outlet
    {
        type patch;
        faces
        (
          (160 161 166 167) //top
          (167 166 169 168)
          (183 182 185 184)
          (184 185 190 191)
          (168 169 174 175) 
          (175 174 177 176) 
          (176 177 182 183)
          
          (161 162 165 166)
          (166 165 170 169)
          (169 170 173 174)
          (174 173 178 177)
          (177 178 181 182)
          (182 181 186 185)
          (185 186 189 190)
          
          (162 163 164 165)
          (165 164 171 170)
          (170 171 172 173)
          (173 172 179 178)
          (178 179 180 181)
          (181 180 187 186)
          (186 187 188 189)
          
          (7 0 32 39) // back outlet
          (39 32 64 71)
          (71 64 96 103)
          (103 96 128 135)
          (135 128 160 167)
          
          (31 24 56 63)
          (63 56 88 95)
          (95 88 120 127)
          (127 120 152 159)
          (159 152 184 191)
          
          (30 31 63 62)
          (62 63 95 94)
          (94 95 127 126)
          (126 127 159 158)
          (158 159 191 190)
          
          (29 30 62 61)
          (61 62 94 93)
          (93 94 126 125)
          (125 126 158 157)
          (157 158 190 189)
          
          (28 29 61 60)
          (60 61 93 92)
          (92 93 125 124)
          (124 125 157 156)
          (156 157 188 189)
          
          (27 28 60 59)
          (59 60 92 91)
          (91 92 124 123)
          (123 124 156 155)
          (155 156 188 187)
          
          (20 27 59 52) 
          (52 59 91 84)
          (84 91 123 116)
          (116 123 155 148)
          (148 155 187 180)
          
          (19 20 52 51)
          (51 52 84 83)
          (83 84 116 115)
          (115 116 148 147)
          (147 148 180 179)
          
          (12 19 51 44)
          (44 51 83 76)
          (76 83 115 108)
          (108 115 147 140)
          (140 147 179 172)
          
          (11 12 44 43)
          (43 44 76 75)
          (75 76 108 107)
          (107 108 140 139)
          (139 140 172 171)
          
          (4 11 43 36)
          (36 43 75 68)
          (68 75 107 100)
          (100 107 139 132)
          (132 139 171 164)
          
          (3 4 36 35)
          (35 36 68 67)
          (67 68 100 99)
          (99 100 132 131)
          (131 132 164 163)
          
          (2 3 35 34)
          (34 35 67 66)
          (66 67 99 98)
          (98 99 131 130)
          (130 131 163 162)
          
          (1 2 34 33)
          (33 34 66 65)
          (65 66 98 97)
          (97 98 130 129)
          (129 130 161 162)
          
          (0 1 33 32)
          (32 33 65 64)
          (64 65 97 96)
          (96 97 129 128)
          (128 129 161 160)
          
          (143 136 168 175)
          (144 143 175 176)
          (151 144 176 183)
          
          (152 151 183 184)
          (136 135 167 168)
        );
    }
);

mergePatchPairs
(
);

// ************************************************************************* //