/*--------------------------------*- C++ -*----------------------------------*\ 
  =========                 | 
  \      /  F ield         | OpenFOAM: The Open Source CFD Toolbox 
   \    /   O peration     | Version:  v2306 
    \  /    A nd           | Website:  www.openfoam.com
     \/     M anipulation  | 
\*---------------------------------------------------------------------------*/ 
FoamFile 
{ 
    version     2.0; 
    format      ascii; 
    class       dictionary; 
    location    "constant"; 
    object      thermophysicalProperties; 
} 
// * * * * * * * * * * * * * * * * * * * * * * * * * * * * * * * * * * * * * // 
// 
// Thermodynamic Coefficients Generated with mech2FoamV5 
// Sutherland Transport Coefficients Tempertaure Range: 200-2000 K
// 
// * * * * * * * * * * * * * * * * * * * * * * * * * * * * * * * * * * * * * // 

 
thermoType 
{ 
    type            heheuPsiThermo; 
    mixture         inhomogeneousMixture; 
    transport       sutherland; 
    thermo          janaf; 
    equationOfState perfectGas; 
    specie          specie; 
    energy          absoluteEnthalpy; 
} 
 
stoichiometricAirFuelMassRatio    stoichiometricAirFuelMassRatio [0 0 0 0 0 0 0] 34.07341269841282; 
 
oxidant 
{ 
    specie 
    { 
        molWeight       28.85064; 
    } 
    thermodynamics 
    { 
        Tlow            200; 
        Thigh           5000.0; 
        Tcommon         1000.0; 
        highCpCoeffs 
        ( 
            3.0013785464 0.0014869500554 -6.082690404900001e-07 1.2375541675e-10
            -9.886220964e-15 -957.5863042 5.869795690899999
        ); 
        lowCpCoeffs 
        ( 
            3.4002706656000004 0.00048319574240000016 -1.0630119579e-06 2.4237248811000003e-09
            -1.2502517023e-12 -1029.9390686000002 3.8889057833000003
        ); 
    } 
    transport 
    { 
        As              1.6053898230143815e-06; 
        Ts              169.2921543828957; 
    } 
} 
fuel 
{ 
    specie 
    { 
        molWeight       2.016; 
    } 
    thermodynamics 
    { 
        Tlow            200; 
        Thigh           5000.0; 
        Tcommon         1000.0; 
        highCpCoeffs 
        ( 
            3.3372792 -4.94024731e-05 4.99456778e-07 -1.79566394e-10
            2.00255376e-14 -950.158922 -3.20502331
        ); 
        lowCpCoeffs 
        ( 
            2.34433112 0.00798052075 -1.9478151e-05 2.01572094e-08
            -7.37611761e-12 -917.935173 0.683010238
        ); 
    } 
    transport 
    { 
        As              7.245570702975177e-07; 
        Ts              144.95480947439123; 
    } 
} 
burntProducts 
{ 
    specie 
    { 
        molWeight       24.279873119411675; 
    } 
    thermodynamics 
    { 
        Tlow            200; 
        Thigh           5000.0; 
        Tcommon         1000.0; 
        highCpCoeffs 
        ( 
            2.9678470834087216 0.0016823624966982665 -4.1926473372120877e-07 3.2529226408227554e-11
            1.2533336983501309e-15 -10254.086697324143 5.502715179343024
        ); 
        lowCpCoeffs 
        ( 
            3.584301490684525 0.00032099510445221307 -6.181781608366342e-07 2.053540382633733e-09
            -1.0759323345900866e-12 -10413.368163092873 2.3008479738203365
        ); 
    } 
    transport 
    { 
        As              1.6876397135254468e-06; 
        Ts              307.59834340343286; 
    } 
} 
 
// -For information about the values in this document, see file see thermo_Hydrogen-Air-inhomogeneousMixture-thermophysicalProperties_San_Diego_2016_Mech._2025_12_16_sutherlandTrange_200-2000K.txt-
 
// ************************************************************************* // 
