/*--------------------------------*- C++ -*----------------------------------*\
| =========                 |                                                 |
| \\      /  F ield         | OpenFOAM: The Open Source CFD Toolbox           |
|  \\    /   O peration     | Version:  v2306                                  |
|   \\  /    A nd           | Website:  www.openfoam.com                      |
|    \\/     M anipulation  |                                                 |
\*---------------------------------------------------------------------------*/
FoamFile
{
    version     2.0;
    format      ascii;
    class       dictionary;
    object      decomposeParDict;
}
// * * * * * * * * * * * * * * * * * * * * * * * * * * * * * * * * * * * * * //

// numberOfSubdomains  24;

// method          hierarchical;

// coeffs
// {
//     n           (24 1 1);
//     // delta       0.001;  //< default value = 0.001
//     // order       xyz;    //< default order = xyz
// }


// ************************************************************************* //

numberOfSubdomains 24;
method             scotch;

distributed        no;
roots              ( );
// ************************************************************************* //


